11
Coordinates from ORCA-job Au10Ar1
  Au  2.32333593378049      1.09503482921784     -2.55954991876639
  Au  1.96807334114570     -0.68334864768991     -0.67281151585431
  Au  -2.79408802268565     -2.21607677699603     -0.69933492234653
  Au  0.40715414354623      1.60198459557340     -0.84271853823503
  Au  -2.04542658908502      2.77067605657850     -0.68060111506095
  Au  -0.32328704561790     -2.16498129322004      0.16134582923117
  Au  -0.75535237097237      2.08205192803192      1.64436060973667
  Au  0.71802794734249     -0.12119618822627      1.77252634314245
  Au  -1.85830401167937      0.13717535472003     -0.01948325981777
  Au  2.07699005526038     -2.46725411766687      1.33787385434157
  Ar  3.74606791956500     -4.12691767332257      2.99518747452911
