13
Coordinates from ORCA-job Au10Ar3
  Au  2.36307269543144      1.13883317953595     -2.52667557241506
  Au  1.97405243442288     -0.61345669207744     -0.61871532504363
  Au  -2.78220315178294     -2.22530208545418     -0.69230500063636
  Au  0.40588392427529      1.62756102564148     -0.84408581435760
  Au  -2.04671539139640      2.78634802325197     -0.64735298940413
  Au  -0.32140754771579     -2.11906768780903      0.19951492315028
  Au  -0.74924453487786      2.06596018894132      1.65666304228819
  Au  0.74206412709652     -0.11903378537359      1.84758792482829
  Au  -1.85775282484989      0.14330457250382     -0.03177981830984
  Au  2.09245801888815     -2.45359332610599      1.34266542130369
  Ar  3.79684514556605     -4.15538580222605      2.98946391736576
  Ar  3.79270317427219      2.04367952694832     -4.84572325367411
  Ar  -5.01814636112965     -3.71403186057660     -1.70444843369548
