14
Coordinates from ORCA-job Au10Ar4
  Au  2.43134046365882      1.11271053632036     -2.50797486094908
  Au  1.96628968005232     -0.57320528585353     -0.55925996017438
  Au  -2.77147182267286     -2.28376493690526     -0.65203683636377
  Au  0.35771863752763      1.61597581858583     -0.97987122240518
  Au  -2.06725785306479      2.80024861691936     -0.71230371618068
  Au  -0.32664343570049     -2.06357846761338      0.25911955746708
  Au  -0.74100749213256      1.99609352485820      1.55156371007866
  Au  0.79399135543206     -0.13295264002805      1.93859510468170
  Au  -1.90118750565421      0.14660271533633     -0.18075762009710
  Au  2.10370708010087     -2.47087936086635      1.34712910921029
  Ar  3.82045199017033     -4.27737767955421      2.88173242541800
  Ar  4.00860560610184      1.94177583819122     -4.76690465194182
  Ar  -4.95201710179390     -3.92287958192015     -1.56544798680214
  Ar  -3.79859638992507      5.07556733022964     -1.40821670954156
