13
Coordinates from ORCA-job Au11Ar2
  Au  1.61481681843377      1.64692364352768     -3.06830288209549
  Au  -0.19815693670791      0.01097279793218     -2.12911596223338
  Au  -2.24616427630611     -1.74188010090722     -2.12452075094687
  Au  -0.30361908936449     -2.10300118795862     -0.29050699011166
  Au  -2.12172509086116      0.02150468486473     -0.08949231526017
  Au  1.56902714585476      1.36401158039693     -0.46763763821885
  Au  1.36281112723397     -3.36317122585670      1.28433816694559
  Au  1.46398808263573     -0.75025733021215      1.37073583183682
  Au  -2.94632591730723      1.67236628350545      1.76526565761126
  Au  -0.35412908409881      1.37433119782282      1.57217728480966
  Au  2.26457384263713      1.71450641588605      2.11320959613052
  Ar  4.07285315032429      3.09548688180015      3.80190365251489
  Ar  -4.04597257997392     -3.12301724280129     -3.82314215228232
