15
Coordinates from ORCA-job Au13Ar2
  Au  -0.78686503392509     -1.53977655532125     -3.19060967939540
  Au  1.06174558134054     -0.04165367416933     -1.83989942156688
  Au  -1.76585498871540      0.27772748331232     -1.49974408409523
  Au  1.96656498163417      2.49995264052277     -1.53068888579349
  Au  -0.37177473235873     -2.02966113178875     -0.53126907485631
  Au  2.48762893220108     -1.89132188994891     -0.14213707558187
  Au  -2.94492058625791      2.12880850684630      0.01638503913746
  Au  -0.20839595927362      2.11826185293743      0.04976411737563
  Au  2.14654788745637      0.75288789422335      0.58683168086481
  Au  -1.64126159823324      0.13264951078834      1.36011407473024
  Au  -1.67069772971531     -2.54752046980276      1.79665041370828
  Au  0.54976178502590      1.40872167427221      2.74493742017544
  Au  0.73102117233258     -1.20894517306076      1.87859247962555
  Ar  -4.92052022755345      4.13621758637510      0.91450993646296
  Ar  -0.57781201585790     -3.21865000888606     -5.61468966539115
