16
Coordinates from ORCA-job Au13Ar3
  Au  -0.77658816297939     -1.52724723198828     -3.19529869105459
  Au  1.05292168680528     -0.00779314328542     -1.84195513524515
  Au  -1.77835068971461      0.28004444298302     -1.50551967775426
  Au  1.98726059457108      2.52152455605791     -1.52353452656567
  Au  -0.36314750023412     -2.01728218387494     -0.53701552027539
  Au  2.48755419865167     -1.88150247708314     -0.15119340866368
  Au  -2.94148905531130      2.13249807231428      0.02357358795339
  Au  -0.20507908749689      2.11703810830163      0.03090547803125
  Au  2.14445138303739      0.75907530521352      0.58405457752876
  Au  -1.63594544755799      0.13115299549621      1.35440666028445
  Au  -1.66528843149821     -2.54909198454137      1.78640238810440
  Au  0.54448200499849      1.41028036504067      2.74038378873052
  Au  0.73759857416545     -1.20877874283948      1.87905390027299
  Ar  -4.92248266210505      4.14975904880547      0.93111818422770
  Ar  -0.56540470953561     -3.24285537682513     -5.60970853708358
  Ar  3.48336182090381      4.87071304452506     -2.84864286309114
