13
Coordinates from ORCA-job Au13
  Au  -0.74001003053373     -1.57046040162034     -3.15086888808325
  Au  1.10758208846553     -0.06703405956114     -1.81506776436768
  Au  -1.72969700495014      0.27276594099053     -1.49155390387245
  Au  2.02069806024973      2.47094071343328     -1.52318933470873
  Au  -0.34674616061309     -2.04098702184939     -0.48957993153073
  Au  2.50758585476668     -1.91268510600330     -0.09731686222380
  Au  -2.88973102668317      2.14272152621000      0.02118308126556
  Au  -0.15894623008662      2.12073855056237      0.05358170190942
  Au  2.17959085337590      0.73969962174907      0.61108368017035
  Au  -1.61302646166450      0.14665481562991      1.37915467540115
  Au  -1.66141365055576     -2.52747216933323      1.83299939345960
  Au  0.57464905887582      1.42666740240369      2.75499402233985
  Au  0.74946463935333     -1.20154980261145      1.91458013024071
