17
Coordinates from ORCA-job Au14Ar3
  Au  1.84225273296460      3.65897063062757     -1.59858495743829
  Au  1.21294354272435     -1.46512402923766     -0.79033063884800
  Au  1.48847067360583      1.21687465286479     -0.43923294716256
  Au  3.42899522278641      3.14178360300215      0.46148084132583
  Au  0.59784457068962      3.43538279562780      0.86307159847632
  Au  2.99388732971462     -0.66304997441206      1.08500153349515
  Au  0.08824203928256     -0.28314960218652      1.38064360115910
  Au  3.99824916006894      1.34255707644441      2.56375126858837
  Au  2.43675449651671      3.64388560564033      3.06274069576451
  Au  0.15630262241018      1.88630685968278      3.05758367548997
  Au  -0.02635364761215      4.59628811241677      3.29623635716857
  Au  2.03930947629022     -0.18595076768425      3.58594161044096
  Au  5.06606652486748      3.84795698525738      2.48843578271506
  Au  -0.61347073007325     -0.54964527249251      3.99017731515206
  Ar  -2.49480857844975      6.18696180262719      3.71493171302096
  Ar  0.43747406741760      4.71927343223170     -3.98760027662187
  Ar  7.68836091919604      5.07224698139012      3.24417883737387
