15
XYZ file generated by orca_plot on BaseName=Au14Ar1
  Au      1.556417      3.618351     -1.595117
  Au      1.057590     -1.524500     -0.740488
  Au      1.272262      1.168120     -0.437264
  Au      3.263180      3.062568      0.375872
  Au      0.467019      3.390476      0.927747
  Au      2.918852     -0.641981      1.017751
  Au      0.046129     -0.353084      1.493064
  Au      4.024209      1.335681      2.464127
  Au      2.416982      3.609727      3.031267
  Au      0.176482      1.834312      3.141753
  Au     -0.037732      4.542043      3.392187
  Au      2.121732     -0.197695      3.582640
  Au      4.993045      3.876958      2.282682
  Au     -0.496985     -0.602333      4.139343
  Ar     -2.435351      6.158530      3.887003
