18
Coordinates from ORCA-job Au15Ar3
  Au  0.06496952221798      1.75917134001636     -1.89443622494584
  Au  2.15796064212257     -0.10398461110515     -1.79679174287912
  Au  2.23775060249674      2.18322237608096     -0.22995251871032
  Au  0.38802444934445      0.13734233805291      0.38580050991935
  Au  3.33263941412803     -0.51525714081922      0.57775033167631
  Au  -0.63525876728526      3.01363125563382      0.36814146932667
  Au  3.85960479526462      4.06311999272802      0.85494959725010
  Au  1.50870883044752      3.59861636628646      2.10679576828962
  Au  -0.42195463358662      1.38607584691507      2.64975576534356
  Au  3.56310956775693      1.76237018636125      2.24386949646607
  Au  1.57432961848408     -0.36168498666434      2.77685312885617
  Au  4.33153242582324     -0.69165482030083      3.13987583693725
  Au  -1.04471590328341      4.09966726433054      2.88066550911201
  Au  0.80141909118748      2.84783733630338      4.65204372480072
  Au  2.82037889524724      1.06307779329237      4.79281690399827
  Ar  5.71206152064383      6.04375899734746      0.05831897685817
  Ar  -3.69250068828041      5.16680047668783      4.00803832161653
  Ar  5.71152961727096     -3.09601101114692      4.47131914608447
