19
Coordinates from ORCA-job Au15Ar4
  Au  0.13710566488108      1.81408651071801     -1.91965459214138
  Au  2.22467224196706     -0.05556784026272     -1.81022960386177
  Au  2.29935290931867      2.20898488288631     -0.22502042598581
  Au  0.43204759840454      0.17340948857340      0.35660176865119
  Au  3.39198295480457     -0.47133361608877      0.56980695558617
  Au  -0.61220176144376      2.99832560194421      0.36392287145464
  Au  3.86485709911166      4.11107714433803      0.90209846768785
  Au  1.50998596952751      3.59639671641841      2.12275257215308
  Au  -0.39319458386887      1.37005178429482      2.64902499496765
  Au  3.58801951680476      1.78861156188016      2.26352861692525
  Au  1.60394641194567     -0.37734691306947      2.74154488186801
  Au  4.35450967995327     -0.66435318234455      3.15119583283268
  Au  -1.05916252821258      4.07742196310453      2.86662137096128
  Au  0.77384469397999      2.85618604611736      4.66661542561521
  Au  2.78700623389273      1.06275916264315      4.78480120720260
  Ar  5.70437061579344      6.13901761208155      0.17431930544907
  Ar  -3.71969204437627      5.12797675034231      4.00142825617220
  Ar  5.67088302647314     -3.11025258025743      4.49401121559691
  Ar  2.18624030104339     -1.82617309331932     -4.38439712113480
