20
Coordinates from ORCA-job Au15Ar5
  Au  0.15431993718898      1.79803583465903     -1.91414048502908
  Au  2.26457400922480     -0.04964850319045     -1.79003627532015
  Au  2.29461546081509      2.22394567104968     -0.20623635856468
  Au  0.45826141849141      0.16378790605253      0.37008904575795
  Au  3.40738468930150     -0.47117015895007      0.59684216672913
  Au  -0.57550477663201      3.00352011765050      0.36450585266458
  Au  3.88081073659550      4.10833225277063      0.92252130011513
  Au  1.52557441446535      3.60781879557136      2.15094537524220
  Au  -0.38216140504213      1.36927893948782      2.65090962941815
  Au  3.59105699279070      1.78913465392048      2.28224396380548
  Au  1.61107452434546     -0.38034368979978      2.76569124608280
  Au  4.36060683337975     -0.65961607223880      3.18156665566654
  Au  -1.05465720326592      4.07407306847702      2.86562599173949
  Au  0.76795882357214      2.85331429465338      4.68169872508476
  Au  2.78882343870935      1.07083107463104      4.80754627816339
  Ar  5.72301944702499      6.13836543462114      0.18421265109740
  Ar  -3.73639914796981      5.11762458844957      3.98011286627891
  Ar  5.68013923907563     -3.10143239418155      4.53831509553028
  Ar  1.90212747760847     -1.61573708074245     -4.52002978492899
  Ar  -1.01421647227926      1.04047232650888     -4.77035045593331
