18
Coordinates from ORCA-job Au16Ar2
  Au  0.31043332795622      2.96472781910657     -1.24767952513217
  Au  -1.12538709209984      0.63899602792901     -1.22435771089702
  Au  2.48708194879142      3.12059354078620      0.49224278876325
  Au  1.44048403464660      0.63666986054062     -0.11450186128669
  Au  0.08643515999677      4.66791355252739      0.94405146398389
  Au  -0.77828958049356     -0.79404397079699      1.06465921789312
  Au  -0.82115924252088      2.06407671134584      1.19413020816914
  Au  3.91246203537582      3.29596218063556      2.91160587322019
  Au  3.72481024549342      0.82116903233437      1.31525963521435
  Au  1.73660956566148     -1.17953376258006      1.99775161659147
  Au  2.41544026280459      5.42278625398106      2.16786164547809
  Au  5.40912602164425      1.13061521344465      3.48408583464073
  Au  1.09194749557760      3.09388560178340      3.05861237622223
  Au  4.09965826429209     -1.28707554855070      3.25002563632899
  Au  -0.00726007338059      0.63107677118823      3.37492829343469
  Au  2.60558015181304      0.95816349771757      3.97151272101616
  Ar  3.21529876611543      8.45488316306445      2.45700401219766
  Ar  8.03952245922615      1.18979563024280      5.02356896246191
