17
XYZ file generated by orca_plot on BaseName=Au16Ar1
  Au      0.317435      2.925583     -1.266095
  Au     -1.064823      0.566850     -1.232096
  Au      2.478669      3.134040      0.493226
  Au      1.477215      0.625291     -0.095348
  Au      0.058505      4.656228      0.897296
  Au     -0.731868     -0.827486      1.085942
  Au     -0.806098      2.035470      1.173623
  Au      3.889974      3.367993      2.915863
  Au      3.741223      0.860965      1.351209
  Au      1.787627     -1.168072      2.032120
  Au      2.363080      5.460562      2.134074
  Au      5.409529      1.232939      3.526963
  Au      1.068221      3.124521      3.045187
  Au      4.126658     -1.201261      3.332622
  Au      0.013216      0.640988      3.372190
  Au      2.604741      1.033248      4.008737
  Ar      3.257526      8.436277      2.569484
