16
Coordinates from ORCA-job Au16
  Au  0.32100203189409      2.95133471847627     -1.26123734562314
  Au  -1.06179602468759      0.59283550859964     -1.23016228547184
  Au  2.48890696766229      3.15420502804371      0.49094048784179
  Au  1.48152977713573      0.64859773880176     -0.09294126634106
  Au  0.06288002583363      4.67850660416631      0.90351137264131
  Au  -0.72704054193969     -0.80215963423840      1.08742128567181
  Au  -0.79825450593021      2.05875493488959      1.17818472466080
  Au  3.89800354360152      3.39191437849368      2.91872076613131
  Au  3.74557477280443      0.88327447702088      1.35665487220393
  Au  1.79364479010211     -1.14480179976133      2.03467500270777
  Au  2.37228726135563      5.47862327613198      2.13003392695547
  Au  5.41358701076346      1.25400814357684      3.53240532795294
  Au  1.07158674964057      3.14417077121206      3.04956568149029
  Au  4.13015042225120     -1.18052391458668      3.33926923806747
  Au  0.02043221503656      0.65776354157136      3.37539611324523
  Au  2.61146565147624      1.05745597660231      4.01152104986590
