23
Coordinates from ORCA-job Au18Ar5
  Au  2.21432405449408      2.71766807313127     -1.64796832056283
  Au  -0.07690183500400      4.32782493262383     -0.98819615537159
  Au  2.34699627014066      0.23572300317008     -0.46086595289220
  Au  0.01570569288761      1.68938764641448     -0.23786344118409
  Au  4.04605136349054      2.33830828309923      0.37742835017443
  Au  4.87471425794675     -0.31271304118182      0.56716315714422
  Au  0.10440073633684     -0.81018612603071      0.84486846822703
  Au  2.02760989023911      4.17238785195241      0.75280991286723
  Au  -0.62169550988811      3.72663337571651      1.60115461900151
  Au  -1.57456567913095      1.14747522144493      1.96534310163581
  Au  2.59986045204060     -0.94332316109764      2.01120831001706
  Au  3.90035441804172      3.88938010744773      2.70092406796257
  Au  4.29696476012385      1.15711009372716      2.84334826055254
  Au  0.51005992641636      0.19182657887705      3.42661380854107
  Au  1.28544637382820      4.68708754459047      3.37374650917064
  Au  2.85799966666221     -0.32186599717840      4.72947422383760
  Au  -0.54030483690715      2.65850796815672      4.12208973860519
  Au  2.19851412988797      2.28412659911014      4.25055169836735
  Ar  4.23431512750680     -2.22634880063333      6.55839599440325
  Ar  -0.78984031308576      5.76505001153256     -3.45480097387024
  Ar  7.26433096326564     -1.69961861949216     -0.73976766976586
  Ar  5.60711436586490      4.47567316935958      5.46718472860397
  Ar  2.37250972484210      3.80358428525992     -4.68070843546467
