24
Coordinates from ORCA-job Au19Ar5
  Au  4.74877292630977      0.81227600317520     -0.88241124045030
  Au  2.37420676767139      2.34008502557807     -1.02771180817912
  Au  0.02942909640718      0.97842865305383     -1.22997677622592
  Au  2.33866246395109     -0.35917677500713     -0.35317401435162
  Au  2.38328509175762      4.76508392086365      0.20557922465038
  Au  0.15511717223080      3.15423186712884      0.46692274091303
  Au  4.35517628256454      2.87439041423473      0.86270848477561
  Au  -0.08900004370193     -1.15799080986713      0.55694595655797
  Au  -1.59702651858956      1.11475880126937      1.08866184856991
  Au  4.08121906967717      0.24263344963626      1.74516460865609
  Au  2.12696497213527     -1.65804099740841      2.14719759947608
  Au  0.75163095146785      4.90444968610477      2.51601987201311
  Au  3.50976453963375      4.64051131041588      2.74264465205849
  Au  -0.55011916627005      2.59369374648856      3.11848083502603
  Au  -0.07659325567953     -0.15417641815243      3.07882609765818
  Au  4.52973985124672      2.22001283892321      3.61174518654720
  Au  2.51409698243049      0.37547134215288      3.96372418104414
  Au  0.30152226502625      1.19429965088529      5.42110304962489
  Au  1.92754012045417      3.08178563538377      4.30243116316158
  Ar  -1.15286454725399      1.21281297277711      8.07114945186799
  Ar  6.64026128503607      0.44778822052798     -3.21346160007136
  Ar  7.20431005918864      2.75887822345541      5.33179306676758
  Ar  2.46732969923827     -4.86244756411347      2.18793449646899
  Ar  -2.66637206493196     -0.02404519750626     -2.82111907655894
