20
Coordinates from ORCA-job Au19Ar1
  Au  4.58340560449757      0.84407014821591     -1.00686179227748
  Au  2.16411528748650      2.29881826983593     -1.07163135112025
  Au  -0.14052527618991      0.85064632763055     -1.09587117280846
  Au  2.25342700506639     -0.38991652688305     -0.32364869921532
  Au  2.16551234750739      4.74106174998387      0.12972766638177
  Au  0.01174667192449      3.06579905231054      0.54281391375861
  Au  4.21533952624193      2.91927655543273      0.71852448696874
  Au  -0.09932760237972     -1.24681590097305      0.72950088689042
  Au  -1.64792401248656      0.99204770443331      1.29885485963902
  Au  4.10694199197301      0.28383391508203      1.66971186529929
  Au  2.20728024065387     -1.63922033464041      2.20163783573775
  Au  0.65658716010380      4.87943248895811      2.52330922802008
  Au  3.43127858239495      4.70944948265137      2.60571564320122
  Au  -0.52778383093114      2.53723576047534      3.23657209166564
  Au  0.00417976972421     -0.19693916229110      3.23393225986485
  Au  4.56284240171463      2.33379585582343      3.45315299435603
  Au  2.62508621133283      0.44397168333943      3.95022051666268
  Au  0.48486028746956      1.21755626793650      5.52305293156146
  Au  1.98176675056259      3.13933600060638      4.28463627699073
  Ar  -0.88125496816642      1.14614420077214      8.18624400832317
