19
Coordinates from ORCA-job Au19
  Au  4.62453999880872      0.74018980308715     -0.88908994459924
  Au  2.23330246720475      2.22597135485538     -1.06834830314546
  Au  -0.09603765251204      0.82009429232457     -1.12787867253055
  Au  2.25176015236745     -0.44423139636963     -0.25221785891310
  Au  2.23654861392587      4.71474092810100      0.03218459922344
  Au  0.04885936825951      3.08284345376871      0.44646206310481
  Au  4.25144424839752      2.89385935233953      0.74216442159967
  Au  -0.14688173896950     -1.21306404103725      0.76836158173380
  Au  -1.67357810327101      1.06741970826948      1.21461947758668
  Au  4.03562448338912      0.29792551743887      1.77984221531699
  Au  2.10452869794305     -1.58764372480027      2.32406475969235
  Au  0.65853651694534      4.96163092962890      2.37447806850424
  Au  3.42597938135536      4.75245434239107      2.54532071017429
  Au  -0.59606577806374      2.66907144745642      3.13232748115012
  Au  -0.09820817122848     -0.07646096062587      3.23657752450485
  Au  4.48817420086837      2.39170917402757      3.50979365300771
  Au  2.52141717440492      0.53525193705029      4.02684630743691
  Au  0.33452662533846      1.41235992569267      5.47987520333554
  Au  1.90144003383631      3.26178947740141      4.23052583281694
