21
Coordinates from ORCA-job Au20Ar1
  Au  -0.27469068003416      0.85890291868277     -1.00050296816359
  Au  2.35667733501463      1.64930806641978     -1.63947448737347
  Au  1.90879507162084     -0.05351008364049      0.50000366067108
  Au  0.41486211522517      3.52837077320699     -0.91594268450273
  Au  2.98968996588641      3.89345974093388     -0.09165687109387
  Au  4.23216209988943      1.38696263795219      0.34406086864194
  Au  0.78864836317660      4.66183995921522      1.48937746027995
  Au  -0.83871885269888      2.37773254095079      1.26186865989279
  Au  5.45579271734024      3.75322241680310      1.10231809523050
  Au  -0.69696871776752     -0.42164420285507      1.39077156018586
  Au  4.01136914856186     -0.49272952703636      2.26443309892971
  Au  3.37256162050009      4.80012298874384      2.55055798709552
  Au  4.23118911523998      2.19014121069576      3.03436483826623
  Au  -0.72318201341906      3.74235913486744      3.64142081362633
  Au  1.24029885806730      5.74565111445180      3.97555718906308
  Au  0.15641186368741      1.14466434282880      3.55755551260828
  Au  1.31522894110653     -1.29524822772490      2.95386244243437
  Au  1.95103958986735      3.12714735009840      4.33731488776092
  Au  3.45034979599091     -2.02308240828015      4.44360215610569
  Au  2.68098635942905      0.57949674496210      4.61359910161215
  Ar  4.74707030331580     -4.31459549127591      5.90292867872924
