23
Coordinates from ORCA-job Au20Ar3
  Au  -0.35346889526380      0.86355202699235     -0.96288319182907
  Au  2.26840928311624      1.59628247969881     -1.67995449830083
  Au  1.84958492055233     -0.09183789550544      0.47947544843778
  Au  0.38106619681352      3.52301010718518     -0.92618483414331
  Au  2.98468585919836      3.84194921616603     -0.17307944842557
  Au  4.18508569162455      1.32303509171962      0.26121322368278
  Au  0.83731502162630      4.66628923677245      1.45870071581012
  Au  -0.84297128751148      2.41686475653478      1.29351847409397
  Au  5.47903337360500      3.67792338234104      0.95731843280275
  Au  -0.73982798590106     -0.38309080726662      1.45037397752524
  Au  3.98374568840847     -0.53477035387651      2.20598819258532
  Au  3.44879704803185      4.76833090139053      2.44387240141353
  Au  4.27376418808504      2.14998584209331      2.93623688703243
  Au  -0.64003769818294      3.80218182275759      3.65657438596763
  Au  1.37801263738377      5.77879485419153      3.91409686805430
  Au  0.19116833759594      1.18826593654848      3.57757160920849
  Au  1.29747956067125     -1.27531800699171      2.96944628291281
  Au  2.04039768392487      3.14769308496440      4.27432296807189
  Au  3.45136006613516     -2.02908666010007      4.41750755476759
  Au  2.73161059491433      0.59136214051489      4.57929314128315
  Ar  4.78937513283883     -4.25904526140436      5.98849881598231
  Ar  8.42824982129469      4.16350467281080      0.33713732441637
  Ar  0.51135676103873      8.28699043246292      5.38568026865030
