5
Coordinates from ORCA-job Au2Ar3
  Au  -2.99371875141215      0.84599675104851     -0.00632522451902
  Au  -0.40628515310340      0.79793433866500      0.00251791479465
  Ar  2.25617219537041      1.00452671434758      0.01140695749234
  Ar  -5.60119689944550      0.94474291581552     -0.01530850223608
  Ar  -0.43062775450936     -2.17708503947661     -0.00228356823189
