7
Coordinates from ORCA-job Au3Ar4
  Au  0.42727964651999     -0.66014168744015     -1.31903806057990
  Au  0.68916996495213      1.50861393035504      0.12715771019242
  Au  -0.80861478816591     -0.46872703074709      0.99032165742585
  Ar  -2.37654085077039     -1.48916207849304      2.81537117883089
  Ar  1.67680318589670      3.89781204358682      0.50945580599665
  Ar  0.95673086854259     -2.05823539933329     -3.46259831501104
  Ar  2.59756992912490      1.75807844667172     -2.96277705985486
