5
Coordinates from ORCA-job Au3Ar2
  Au  0.43868204530791     -0.67832660658081     -1.35338593546040
  Au  0.70870429328810      1.49058259359127      0.07763055879891
  Au  -0.80571669562877     -0.52211016333198      0.93820665831858
  Ar  -2.33607105768574     -1.36002477500975      2.85718193447749
  Ar  1.60203162771851      3.86563033803127      0.61266889846542
