4
Coordinates from ORCA-job Au3Ar1
  Au  0.42894171080487     -0.65550907260785     -1.31683718108552
  Au  0.68955332265784      1.50390423052264      0.12320537109829
  Au  -0.82143614441224     -0.47752004507288      1.00467165857237
  Ar  -2.37193982465047     -1.48449190394191      2.81007686031486
