6
XYZ file generated by orca_plot on BaseName=Au3Ar3
  Au      0.417514     -0.667885     -1.309094
  Au      0.680527      1.505627      0.139101
  Au     -0.816178     -0.471555      0.999405
  Ar     -2.380536     -1.494593      2.817471
  Ar      1.692011      3.885334      0.474916
  Ar      0.975007     -2.026413     -3.463717
