4
Coordinates from ORCA-job Au4_I1
  Au  0.36292269254415     -1.21859530128753      0.78851674116692
  Au  -0.25799252829060      0.91318315943379     -0.79837370155742
  Au  -0.48557338142833      1.06765817865203      1.84509497028078
  Au  0.59032908537477     -1.37266014319829     -1.85433397999027
