6
Coordinates from ORCA-job Au4Ar2_I1
  Au  0.34385500424886     -1.17118225086176      0.82598314772429
  Au  -0.27189622989844      0.94153937372327     -0.73044927892200
  Au  -0.50437340557765      1.10721038535489      1.92027282541946
  Au  0.57623960463745     -1.33687868598790     -1.82473762389149
  Ar  0.95498833281502     -3.28618522901709      2.39210586472863
  Ar  -0.88388930612522      3.05611540668859     -2.29681093525889
