6
Coordinates from ORCA-job Au4Ar2_I2
  Au  0.25565436151197     -0.70345505984631      1.04360046511140
  Au  -0.31241002233080      0.50898809617673     -1.19040219007376
  Au  -0.42530137133373      1.84867538694069      1.11511579583465
  Au  -0.47579609375933      2.97194201052791      3.43889489051899
  Ar  -0.61186169873970      4.38900718214449      5.75481871119021
  Ar  0.96997255915160     -2.76203200944351      2.51217440291851
