7
Coordinates from ORCA-job Au5Ar2
  Au  -1.44490683084373     -1.69100030041052     -1.82430405879600
  Au  1.12866082134628     -1.85881779668076     -1.74232665713549
  Au  1.33466696960339      1.41375256158302      1.59727029555646
  Au  -0.05519423909732     -0.13758837975992     -0.11431357424937
  Au  -1.23873203439229      1.58476587994160      1.51261804799000
  Ar  3.88570409909953      1.75551971697608      2.19891642536957
  Ar  -3.99692858301587     -2.03440674034950     -2.42079433703518
