6
Coordinates from ORCA-job Au5Ar1
  Au  -1.42980469381481     -1.67068874577756     -1.81387547109510
  Au  1.15027413653780     -1.83554664185958     -1.71349972730701
  Au  1.32888999989074      1.41596266796962      1.59966973331405
  Au  -0.09467397460692     -0.11456067014289     -0.09661287583864
  Au  -1.24045620782048      1.61956563359247      1.54618614043085
  Ar  3.89419631301367      1.70128881891795      2.14739975439586
