6
Coordinates from ORCA-job Au6_I2
  Au  -1.88687927253815      0.02249391083938     -2.36075079439184
  Au  0.13411132512637      1.11165569511820     -1.11309310261905
  Au  -1.07165755388748     -1.06623979813512     -0.12963252850842
  Au  1.12722467400461      0.02060091611689      1.33759970185725
  Au  2.14619393496586      2.13716814914370      0.19541072520213
  Au  -0.19891800067121     -2.09480325098304      2.10470194455993
