10
Coordinates from ORCA-job Au7Ar3
  Au  -1.62893148416270     -0.27536260453954     -2.10139422190409
  Au  -0.10515723226138      1.94167265621480     -1.85525275113019
  Au  -1.40582039167781     -2.35921456729880     -0.39635525316248
  Au  0.15251306744680     -0.13903464672082     -0.11068174425900
  Au  1.68044656057561      2.03852205583377      0.16980343982513
  Au  0.40589161300970     -2.18011717065508      1.59959100869729
  Au  1.96857775215709      0.00031048345877      1.91938993223059
  Ar  -3.49241251275742     -0.42126017859099     -4.18043257426906
  Ar  0.66687751731530     -4.31653848707574      3.38390839674022
  Ar  3.27447800295481      4.31691819417363      0.46014629543157
