8
Coordinates from ORCA-job Au7Ar1
  Au  -1.62203663070744     -0.28564633328174     -2.13043939959845
  Au  -0.22463545200210      2.00734364630197     -1.73233791913702
  Au  -1.52043046822674     -2.27534460879458     -0.28692479603969
  Au  0.00730899602454     -0.06162430087269     -0.00647603071585
  Au  1.55218772491951      2.12497815863459      0.29728960080766
  Au  0.27193589821841     -2.10856624230987      1.72575650055127
  Au  1.66063395350267      0.16517122106359      2.14759195662779
  Ar  -3.28272413102884     -0.53628644994127     -4.35522079499571
