10
Coordinates from ORCA-job PdAu3Ar6_I1_2
  Au  -3.83811131030881      2.12583625523404      0.06485606237364
  Au  -4.63226357526977     -0.53503527027393     -0.18160699166001
  Au  -1.93488382831246      0.08977566162458      0.14984282223694
  Pd  -3.69373090883191      0.43518964883698      2.08385227346303
  Ar  -4.22517212442867      4.47213633613572     -1.20199527133665
  Ar  0.42990601081107     -0.51039255036808     -0.99337289538291
  Ar  -6.16960783298300     -2.04181821722938     -1.80212784016496
  Ar  -2.24287224449144      1.86956293827859      4.04390780398722
  Ar  -6.03089654224770      0.98467711505475      3.58074423318387
  Ar  -3.35566964393733     -1.86804591729326      3.69783780329983
