7
Coordinates from ORCA-job PdAu2Ar4
  Au  -0.03788749839566     -1.20041863071002     -0.95094853074729
  Au  0.78549045907041      1.18285476901661     -0.55421872456177
  Pd  -0.71806788531459     -0.05178125150212      1.26177352055555
  Ar  -1.44035229259564      1.02986396997541      3.50002554188050
  Ar  1.68181826117105      3.65728808022244     -0.21718732230050
  Ar  -0.71242490573160     -3.72089549533848     -1.73991715962495
  Ar  2.48283490319602      1.66783223843616     -3.37609485570153
