12
Coordinates from ORCA-job PdAu9_I3_Iar2
  Au  1.91134096283970     -2.04727753462917     -2.30708324193428
  Au  -1.90520387501327      0.21613307055611     -0.06385309719139
  Au  0.03157203514101     -0.20530097693767     -2.11302747633628
  Au  -1.50447754222430      2.00177775051583     -2.05051996032532
  Au  0.01873586670197     -0.04598634900994      2.06070466215119
  Au  1.63683652798685     -0.95191280892932      0.07224366922317
  Pd  2.34302708001178      1.08916410743769      1.61292926009125
  Au  -2.41039278670661     -1.10403576172216      2.13711516955378
  Au  0.45910398876613      1.75412175936084     -0.13940056746880
  Ar  2.75599118556885      2.71034719551682      3.77163139764900
  Ar  -2.71711857838999      4.20337391027996     -3.54466795643794
  Ar  4.99574375041787      2.07926068456098      0.75784175102563
