8
Coordinates from ORCA-job PdAu3Ar4
  Au  -0.35878972328567      1.61115656388545     -0.11674015205372
  Au  -1.13301253220412     -1.02803115573176     -0.52658108520570
  Au  1.55369236656484     -0.40640943121101     -0.19746452681695
  Pd  -0.17382506365439     -0.19625477531166      1.78991009831343
  Ar  -0.76911639451721      4.00098801200580     -1.29134326916067
  Ar  3.88233704818064     -0.90133974993027     -1.42167608107007
  Ar  -2.66885219554112     -2.41684509494958     -2.22319571965791
  Ar  -0.00557111554296     -1.96114339875697      3.78899658565160
