10
Coordinates from ORCA-job PdAu9_Ar1_I1_Iar1
  Au  1.89253975842624     -1.60266008157524     -2.33967863719531
  Au  -2.05741292347075      0.29818262161422     -0.00634068709604
  Au  0.06332383187424      0.24091595656191     -1.93411652207743
  Au  -1.45663850283269      2.40593246076790     -1.54006743652369
  Au  -0.26763526778044     -0.47286390134468      1.99075739430174
  Au  1.85176388116549     -0.53448202919280      0.06149787353662
  Au  1.99842843543480      0.91337404370806      2.30622951107706
  Au  -2.69381580782347     -1.47112211581602      1.83039776439927
  Pd  0.29893417282743      1.79662860598373      0.41169036655342
  Ar  0.85589642217915      4.55207043929292      0.95218837302435
