12
Coordinates from ORCA-job PdAu9_I2_Iar1
  Au  1.36952088225527     -2.10875384776746     -2.45675251184797
  Au  -1.89021183628628      0.58651613085710     -0.14844788281904
  Au  0.00572500088394      0.12140074381045     -2.20180405757159
  Au  -1.15524256501676      2.53543167286266     -1.87973428347729
  Pd  -0.05752710122626     -0.15324537760262      1.83222307029508
  Au  1.72323565526314     -0.80518162043417     -0.19937548958322
  Au  2.40887928265421      0.89178321125033      1.78694934979512
  Au  -2.50115887104711     -1.08907107396575      1.73430118936800
  Au  0.64062887258478      1.85987370742830      0.02359480360237
  Ar  -0.83637830262627      1.65439138103867      4.45057466569326
  Ar  -4.71921620331190     -2.78779446182261      2.81494761490976
  Ar  0.57750311427325     -2.03695051775491      4.08199291893550
